Version 4
SHEET 1 1204 680
WIRE 176 -848 -16 -848
WIRE 432 -848 256 -848
WIRE -16 -784 -16 -848
WIRE 432 -784 432 -848
WIRE -16 -672 -16 -704
WIRE 208 -672 -16 -672
WIRE 432 -672 432 -720
WIRE 432 -672 208 -672
WIRE 208 -656 208 -672
FLAG 208 -656 0
FLAG 432 -848 a
SYMBOL res 160 -832 R270
WINDOW 0 32 56 VTop 2
WINDOW 3 0 56 VBottom 2
SYMATTR InstName R1
SYMATTR Value 10K
SYMBOL cap 416 -784 R0
SYMATTR InstName C1
SYMATTR Value 10n
SYMBOL voltage -16 -800 R0
WINDOW 123 24 44 Left 2
WINDOW 39 0 0 Left 0
WINDOW 3 24 72 Left 2
SYMATTR InstName V1
SYMATTR Value PULSE(0 5 0 1n 1n 0.5m 1m)
TEXT 134 -776 Left 2 !.tran 0 3m 0 1u
